Geom Title=test3
Program Version=6.31
Viewing Rectangle= 0 , 1 , 1 , 0 

River Reach=1               ,1               
Reach XY= 2 
0.169182389937110.783647798742140.447169811320760.46792452830189
Rch Text X Y=0.2386792,0.704717
Reverse River Text= 0 

Type RM Length L Ch R = 1 ,920     ,180,180,180
Node Last Edited Time=Jan/20/2026 08:40:21
#Sta/Elev= 18 
       0  908.59  35.141 905.151  74.729 900.125   96.75 896.621  127.55 893.996
 158.484 890.844 185.738 886.267 209.591 880.606 223.729     876 235.889     876
 260.037  888.78 293.909 892.318 337.084 896.782 377.207 898.725 459.035 903.243
 506.103 906.932 544.153 911.614 570.637 914.698
#Mann= 3 ,0,0
       0     .05       0 185.738    .035       0 260.037     .05       0
Bank Sta=185.738,260.037
XS Rating Curve= 0 ,0
XS HTab Horizontal Distribution= 5 , 5 , 5 
Exp/Cntr=0.3,0.1

Type RM Length L Ch R = 1 ,740     ,182,182,182
Node Last Edited Time=Jan/20/2026 08:37:59
#Sta/Elev= 11 
       0 913.779  93.588 898.763 134.004     876  184.08     876 213.465 884.097
 267.021 889.658 317.097 895.046 361.727 897.244 417.481 898.112 470.993  900.23
 603.503 921.326
#Mann= 3 ,0,0
       0     .05       0 134.004    .035       0 267.021     .05       0
Bank Sta=134.004,267.021
XS Rating Curve= 0 ,0
XS HTab Horizontal Distribution= 5 , 5 , 5 
Exp/Cntr=0.3,0.1

Type RM Length L Ch R = 1 ,558     ,346,346,346
Node Last Edited Time=Jan/20/2026 08:38:19
#Sta/Elev= 20 
       0  909.59  47.526 907.134  75.289  902.93  94.576 901.092 116.962 900.692
 167.301 887.986 194.623 880.512 222.359 877.376 227.106 874.185 232.076  873.36
 236.404 875.216 242.018 878.507 248.559 881.963 259.816  887.15 287.327 891.661
 312.494 893.537 403.849 899.523 469.047 899.178 537.763 904.856 589.694 908.737
#Mann= 3 ,0,0
       0     .05       0 194.623    .035       0 259.816     .05       0
Bank Sta=194.623,259.816
XS Rating Curve= 0 ,0
XS HTab Horizontal Distribution= 5 , 5 , 5 
Exp/Cntr=0.3,0.1

Type RM Length L Ch R = 1 ,212     ,212,212,212
Node Last Edited Time=Jan/20/2026 08:38:32
#Sta/Elev= 17 
       0  905.74  95.377 903.904 145.998 902.461 196.454 898.688 254.711 892.487
 326.931 884.601 336.889 883.333 366.236  880.75 383.396 877.726  403.87 872.099
 416.821 875.029 458.466 889.441 512.287 881.999 542.188 884.744 634.764 897.014
 686.371 904.044 755.982 912.566
#Mann= 3 ,0,0
       0     .05       0 366.236    .035       0 416.821     .05       0
Bank Sta=366.236,416.821
XS Rating Curve= 0 ,0
XS HTab Horizontal Distribution= 5 , 5 , 5 
Exp/Cntr=0.3,0.1

Type RM Length L Ch R = 1 ,0       ,,,
Node Last Edited Time=Jan/20/2026 08:38:39
#Sta/Elev= 15 
       0 912.779  81.665 905.919 156.367 900.451 235.951 894.763 262.025 890.615
 293.572 885.925 322.847 880.742  347.75 873.884 368.981 873.208 391.035 875.136
 426.434 883.726  477.83  887.14 529.919 889.792 629.743 899.602 721.196 918.822
#Mann= 3 ,0,0
       0     .05       0 322.847    .035       0 426.434     .05       0
Bank Sta=322.847,426.434
XS Rating Curve= 0 ,0
XS HTab Horizontal Distribution= 5 , 5 , 5 
Exp/Cntr=0.3,0.1

LCMann Time=Dec/30/1899 00:00:00
LCMann Region Time=Dec/30/1899 00:00:00
LCMann Table=0
Chan Stop Cuts=-1 



Use User Specified Reach Order=0
GIS Ratio Cuts To Invert=-1
GIS Limit At Bridges=0
Composite Channel Slope=5
