Flow Title=test3
Program Version=6.31
Number of Profiles= 1 
Profile Names=PF 1
River Rch & RM=1,1               ,920     
     500
Boundary for River Rch & Prof#=1,1               , 1 
Up Type= 0 
Dn Type= 3 
Dn Slope=0.003
DSS Import StartDate=
DSS Import StartTime=
DSS Import EndDate=
DSS Import EndTime=
DSS Import GetInterval= 0 
DSS Import Interval=
DSS Import GetPeak= 0 
DSS Import FillOption= 0 
